REMARK  2 active torsions:
REMARK  status: ('A' for Active; 'I' for Inactive)
REMARK    1  A    between atoms: O1_3  and  C9_13 
REMARK    2  A    between atoms: C5_9  and  C6_10 
ROOT
HETATM    1  C1  9FG A1001      -0.073  28.279   3.319  1.00 29.79     0.131 C 
HETATM    2  N1  9FG A1001       1.110  28.948   3.841  1.00 29.62    -0.318 N 
HETATM    3  C2  9FG A1001       2.283  28.278   4.120  1.00 28.55     0.130 A 
HETATM    4  N2  9FG A1001       2.616  25.738   3.779  1.00 27.37    -0.190 NA
HETATM    5  C3  9FG A1001       3.193  29.193   4.593  1.00 28.21     0.029 A 
HETATM    6  C4  9FG A1001       2.559  30.455   4.597  1.00 29.05     0.019 A 
HETATM    7  C5  9FG A1001       1.253  30.307   4.140  1.00 29.68     0.063 A 
HETATM    8  C12 9FG A1001       2.487  26.878   3.938  1.00 28.29     0.119 C 
ENDROOT
BRANCH   7   9
HETATM    9  C6  9FG A1001       0.233  31.361   3.957  1.00 29.78     0.043 A 
HETATM   10  C7  9FG A1001       0.587  32.566   3.318  1.00 30.13     0.006 A 
HETATM   11  C8  9FG A1001      -0.361  33.586   3.116  1.00 30.56     0.024 A 
HETATM   12  C9  9FG A1001      -1.679  33.403   3.544  1.00 30.85     0.092 A 
HETATM   13  C10 9FG A1001      -2.052  32.217   4.177  1.00 30.09     0.054 A 
HETATM   14  C11 9FG A1001      -1.104  31.219   4.373  1.00 29.86     0.143 A 
HETATM   15  F1  9FG A1001      -1.518  30.107   4.978  1.00 30.56    -0.204 F 
BRANCH  12  16
HETATM   16  O1  9FG A1001      -2.583  34.410   3.331  1.00 30.27    -0.359 OA
HETATM   17  H1  9FG A1001      -3.479  34.286   3.622  1.00  0.00     0.217 HD
ENDBRANCH  12  16
ENDBRANCH   7   9
TORSDOF 2
