REMARK  1 active torsions:
REMARK  status: ('A' for Active; 'I' for Inactive)
REMARK    1  A    between atoms: C17_18  and  O17_19 
ROOT
HETATM    1  C1  DHT A1001      27.333   5.146   4.391  1.00 28.58     0.008 C 
HETATM    2  C2  DHT A1001      26.429   6.316   4.843  1.00 29.67     0.065 C 
HETATM    3  C3  DHT A1001      24.996   6.070   4.217  1.00 31.35     0.151 C 
HETATM    4  O3  DHT A1001      24.607   7.027   3.542  1.00 29.06    -0.296 OA
HETATM    5  C4  DHT A1001      24.457   4.947   4.470  1.00 28.05     0.065 C 
HETATM    6  C5  DHT A1001      25.298   3.711   3.991  1.00 27.71     0.007 C 
HETATM    7  C6  DHT A1001      24.602   2.330   4.266  1.00 30.61     0.000 C 
HETATM    8  C7  DHT A1001      25.489   1.178   3.736  1.00 27.94     0.000 C 
HETATM    9  C8  DHT A1001      26.903   1.155   4.418  1.00 29.45     0.000 C 
HETATM   10  C9  DHT A1001      27.595   2.546   4.176  1.00 28.63     0.000 C 
HETATM   11  C10 DHT A1001      26.723   3.762   4.709  1.00 27.91     0.001 C 
HETATM   12  C11 DHT A1001      29.014   2.494   4.830  1.00 27.78     0.000 C 
HETATM   13  C12 DHT A1001      29.930   1.352   4.399  1.00 27.69     0.002 C 
HETATM   14  C13 DHT A1001      29.243  -0.037   4.508  1.00 28.83     0.025 C 
HETATM   15  C14 DHT A1001      27.819   0.036   3.848  1.00 28.82     0.002 C 
HETATM   16  C15 DHT A1001      27.337  -1.425   3.977  1.00 30.55     0.003 C 
HETATM   17  C16 DHT A1001      28.619  -2.223   3.590  1.00 30.01     0.029 C 
HETATM   18  C17 DHT A1001      29.778  -1.191   3.680  1.00 29.08     0.111 C 
HETATM   19  C18 DHT A1001      29.164  -0.442   6.035  1.00 28.37     0.002 C 
HETATM   20  C19 DHT A1001      26.561   3.623   6.279  1.00 26.66     0.000 C 
ENDROOT
BRANCH  18  21
HETATM   21  O17 DHT A1001      30.926  -1.817   4.264  1.00 32.95    -0.385 OA
HETATM   22  H01 DHT A1001      31.219  -2.538   3.701  1.00 32.95     0.210 HD
ENDBRANCH  18  21
TORSDOF 1
